27
energy=-6825.823684999 lattice="9.594137763 0.000000000 0.000000000 4.797068882 8.308763156 0.000000000 0.000000000 0.000000000 19.999977958" virial="0.134672382 0.000000000 -0.000000000 0.000000000 0.134672382 0.000000000 -0.000000000 0.000000000 -0.395234163" properties=species:S:1:pos:R:3:force:R:3 config_type=02 weight=1.0
Mo -0.000961126 0.004887974 0.054363402 -0.000068134 0.000114414 0.000160951
S 1.598065873 0.928084995 1.584644765 -0.000192062 0.000032139 -0.000259168
Se 1.598065911 0.928085716 -1.639010608 -0.000143468 0.000029568 0.000145268
Mo 3.197087497 0.004888235 0.054362596 -0.000040366 0.000054765 0.000114928
S 4.796106651 0.928086010 1.584647824 0.000001800 -0.000059650 -0.000128298
Se 4.796106974 0.928087486 -1.639010198 0.000005656 -0.000063763 -0.000032653
Mo 6.395132644 0.004888557 0.054364875 0.000079190 0.000023397 0.000080219
S 7.994160542 0.928087497 1.584646580 0.000186662 0.000074819 -0.000295420
Se 7.994159598 0.928089764 -1.639010515 0.000129841 0.000056050 0.000201318
Mo 1.598062061 2.774480387 0.054363755 -0.000045509 -0.000088960 0.000151438
S 3.197085145 3.697675894 1.584644889 -0.000158123 -0.000076362 -0.000018769
Se 3.197085532 3.697676103 -1.639009088 -0.000119299 -0.000080476 -0.000083561
Mo 4.796107940 2.774479206 0.054363814 0.000045251 -0.000043452 0.000124442
S 6.395133432 3.697677248 1.584644842 0.000218287 -0.000142182 -0.000060164
Se 6.395134381 3.697677839 -1.639005261 0.000161723 -0.000125470 -0.000074305
Mo 7.994159555 2.774481202 0.054364549 0.000044994 -0.000054765 0.000119556
S 9.593185049 3.697680786 1.584645808 -0.000049108 -0.000246569 -0.000224715
Se 9.593183174 3.697679642 -1.639009790 -0.000042166 -0.000200289 0.000115443
Mo 3.197082234 5.544067110 0.054362756 -0.000027511 0.000070705 0.000101816
S 4.796108716 6.467262617 1.584642702 -0.000030853 0.000261482 -0.000049879
Se 4.796109449 6.467262818 -1.639007409 -0.000014655 0.000217001 -0.000046023
Mo 6.395135850 5.544071255 0.054364742 0.000025197 0.000009256 0.000126756
S 7.994161373 6.467267837 1.584645672 -0.000007456 0.000070963 -0.000063249
Se 7.994158375 6.467267913 -1.639008200 0.000004628 0.000092560 -0.000095131
Mo 9.593182795 5.544072403 0.054362661 -0.000007456 -0.000065563 0.000116985
S 11.192205403 6.467263158 1.584645756 0.000032139 0.000058621 -0.000058621
Se 11.192206023 6.467264896 -1.639010918 0.000010799 0.000082275 -0.000068649
