27
lattice="9.594137763099999 0.0 0.0 4.7970688815499996 8.308763156288677 0.0 0.0 0.0 19.999977957509312" properties=species:S:1:pos:R:3:force:R:3 energy=-6825.823684998744 virial="0.13467238160935907 0.0 -0.0 0.0 0.13467238160935907 0.0 -0.0 0.0 -0.39523416341877127" stress="133.56717688421796 0.0 -0.0 0.0 133.56717688421796 0.0 -0.0 0.0 -391.99062781237876" job_done=T pbc="T T T"
Mo      -0.00096113       0.00488797       0.05436340      -0.00006813       0.00011441       0.00016095
S        1.59806587       0.92808499       1.58464476      -0.00019206       0.00003214      -0.00025917
Se       1.59806591       0.92808572      -1.63901061      -0.00014347       0.00002957       0.00014527
Mo       3.19708750       0.00488823       0.05436260      -0.00004037       0.00005476       0.00011493
S        4.79610665       0.92808601       1.58464782       0.00000180      -0.00005965      -0.00012830
Se       4.79610697       0.92808749      -1.63901020       0.00000566      -0.00006376      -0.00003265
Mo       6.39513264       0.00488856       0.05436487       0.00007919       0.00002340       0.00008022
S        7.99416054       0.92808750       1.58464658       0.00018666       0.00007482      -0.00029542
Se       7.99415960       0.92808976      -1.63901051       0.00012984       0.00005605       0.00020132
Mo       1.59806206       2.77448039       0.05436376      -0.00004551      -0.00008896       0.00015144
S        3.19708515       3.69767589       1.58464489      -0.00015812      -0.00007636      -0.00001877
Se       3.19708553       3.69767610      -1.63900909      -0.00011930      -0.00008048      -0.00008356
Mo       4.79610794       2.77447921       0.05436381       0.00004525      -0.00004345       0.00012444
S        6.39513343       3.69767725       1.58464484       0.00021829      -0.00014218      -0.00006016
Se       6.39513438       3.69767784      -1.63900526       0.00016172      -0.00012547      -0.00007430
Mo       7.99415956       2.77448120       0.05436455       0.00004499      -0.00005476       0.00011956
S        9.59318505       3.69768079       1.58464581      -0.00004911      -0.00024657      -0.00022471
Se       9.59318317       3.69767964      -1.63900979      -0.00004217      -0.00020029       0.00011544
Mo       3.19708223       5.54406711       0.05436276      -0.00002751       0.00007071       0.00010182
S        4.79610872       6.46726262       1.58464270      -0.00003085       0.00026148      -0.00004988
Se       4.79610945       6.46726282      -1.63900741      -0.00001466       0.00021700      -0.00004602
Mo       6.39513585       5.54407126       0.05436474       0.00002520       0.00000926       0.00012676
S        7.99416137       6.46726784       1.58464567      -0.00000746       0.00007096      -0.00006325
Se       7.99415837       6.46726791      -1.63900820       0.00000463       0.00009256      -0.00009513
Mo       9.59318279       5.54407240       0.05436266      -0.00000746      -0.00006556       0.00011699
S       11.19220540       6.46726316       1.58464576       0.00003214       0.00005862      -0.00005862
Se      11.19220602       6.46726490      -1.63901092       0.00001080       0.00008228      -0.00006865
