27
energy=-6822.628927471 lattice="9.594137763 0.000000000 0.000000000 4.797068882 8.308763156 0.000000000 0.000000000 0.000000000 19.999977958" properties=species:S:1:pos:R:3 config_type=04 weight=1.0
Mo 0.024480402 -0.089525778 -0.009284247
S 1.580184231 0.867086510 1.677137791
Se 1.612163411 0.856607793 -1.575899489
Mo 3.119229760 0.035003252 -0.018092625
S 4.880118616 1.024160774 1.545973455
Se 4.715296127 0.959061671 -1.723017917
Mo 6.431533866 -0.019732263 0.049344569
S 8.077702739 0.909515625 1.663885408
Se 8.083341214 1.025527939 -1.616554648
Mo 1.521327074 2.865896552 -0.024900625
S 3.135679868 3.601063668 1.542538754
Se 3.177572671 3.601477175 -1.704374588
Mo 4.708858460 2.676589823 0.132045077
S 6.457888963 3.748372059 1.632864682
Se 6.409652516 3.728832638 -1.590627450
Mo 7.910669760 2.682853835 0.146577318
S 9.553473970 3.733847494 1.679758909
Se 9.686254917 3.597911034 -1.694605837
Mo 3.105553316 5.535737858 -0.015299771
S 4.731545718 6.438688215 1.615717080
Se 4.746281354 6.390303059 -1.578612712
Mo 6.307335834 5.481002343 -0.045616287
S 7.957380739 6.519432478 1.672921167
Se 8.065113312 6.378605886 -1.635820636
Mo 9.539437746 5.498075111 0.099220654
S 11.178790944 6.463756737 1.492425694
Se 11.234134728 6.533988704 -1.722027802
