27
lattice="9.594137763099999 0.0 0.0 4.7970688815499996 8.308763156288677 0.0 0.0 0.0 19.999977957509312" properties=species:S:1:pos:R:3 energy=-6822.628927471157 job_done=T pbc="T T T"
Mo       0.02448040      -0.08952578      -0.00928425
S        1.58018423       0.86708651       1.67713779
Se       1.61216341       0.85660779      -1.57589949
Mo       3.11922976       0.03500325      -0.01809262
S        4.88011862       1.02416077       1.54597345
Se       4.71529613       0.95906167      -1.72301792
Mo       6.43153387      -0.01973226       0.04934457
S        8.07770274       0.90951563       1.66388541
Se       8.08334121       1.02552794      -1.61655465
Mo       1.52132707       2.86589655      -0.02490063
S        3.13567987       3.60106367       1.54253875
Se       3.17757267       3.60147718      -1.70437459
Mo       4.70885846       2.67658982       0.13204508
S        6.45788896       3.74837206       1.63286468
Se       6.40965252       3.72883264      -1.59062745
Mo       7.91066976       2.68285384       0.14657732
S        9.55347397       3.73384749       1.67975891
Se       9.68625492       3.59791103      -1.69460584
Mo       3.10555332       5.53573786      -0.01529977
S        4.73154572       6.43868821       1.61571708
Se       4.74628135       6.39030306      -1.57861271
Mo       6.30733583       5.48100234      -0.04561629
S        7.95738074       6.51943248       1.67292117
Se       8.06511331       6.37860589      -1.63582064
Mo       9.53943775       5.49807511       0.09922065
S       11.17879094       6.46375674       1.49242569
Se      11.23413473       6.53398870      -1.72202780
